DSS_Simulator/ieee650v2_Renamed_withpv/ieee650_Power_elem_kVA.txt

CIRCUIT ELEMENT POWER FLOW

(Power Flow into element from indicated Bus)

Power Delivery Elements

  Bus Phase     kW     +j   kvar         kVA         PF

ELEMENT = "Vsource.SOURCE"
1        1     -3331.7 +j   -305.0     3345.7       0.9958
1        2     -3186.6 +j   -353.0     3206.1       0.9939
1        3     -3217.6 +j   -203.3     3224.0       0.9980
   TERMINAL TOTAL -9736.0 +j   -861.3     9774.0       0.9961
1        0         0.0 +j      0.0        0.0       1.0000
1        0         0.0 +j      0.0        0.0       1.0000
1        0         0.0 +j      0.0        0.0       1.0000
   TERMINAL TOTAL     0.0 +j      0.0        0.0       1.0000

ELEMENT = "Line.LN5815900-1"
7        1      3351.8 +j     37.9     3352.0       0.9999
7        2      3249.6 +j    102.1     3251.2       0.9995
7        3      3089.9 +j    129.4     3092.7       0.9991
   TERMINAL TOTAL  9691.3 +j    269.4     9695.1       0.9996
8        1     -3351.1 +j    -36.4     3351.3       0.9999
8        2     -3249.0 +j   -100.8     3250.6       0.9995
8        3     -3089.5 +j   -128.3     3092.2       0.9991
   TERMINAL TOTAL -9689.7 +j   -265.5     9693.3       0.9996

ELEMENT = "Line.LN5742828-1"
8        1      3351.1 +j     36.4     3351.3       0.9999
8        2      3249.0 +j    100.8     3250.6       0.9995
8        3      3089.5 +j    128.3     3092.2       0.9991
   TERMINAL TOTAL  9689.7 +j    265.5     9693.3       0.9996
9        1     -3350.2 +j    -34.5     3350.4       0.9999
9        2     -3248.3 +j    -99.1     3249.8       0.9995
9        3     -3089.0 +j   -126.8     3091.6       0.9992
   TERMINAL TOTAL -9687.5 +j   -260.5     9691.0       0.9996

ELEMENT = "Line.LN5742828-2"
9        1      3350.2 +j     34.5     3350.4       0.9999
9        2      3248.3 +j     99.1     3249.8       0.9995
9        3      3084.9 +j    125.7     3087.4       0.9992
   TERMINAL TOTAL  9683.4 +j    259.4     9686.8       0.9996
10       1     -3347.6 +j    -29.3     3347.8       1.0000
10       2     -3246.4 +j    -94.4     3247.7       0.9996
10       3     -3083.4 +j   -121.7     3085.8       0.9992
   TERMINAL TOTAL -9677.4 +j   -245.5     9680.5       0.9997

ELEMENT = "Line.LN5473414-1"
10       1      3347.6 +j     29.3     3347.8       1.0000
10       2      3246.4 +j     94.4     3247.7       0.9996
10       3      3083.4 +j    121.7     3085.8       0.9992
   TERMINAL TOTAL  9677.4 +j    245.5     9680.5       0.9997
11       1     -3343.7 +j    -21.2     3343.8       1.0000
11       2     -3243.4 +j    -87.2     3244.6       0.9996
11       3     -3081.1 +j   -115.6     3083.3       0.9993
   TERMINAL TOTAL -9668.2 +j   -224.1     9670.8       0.9997

ELEMENT = "Line.LN5714974-1"
11       1      3343.7 +j     21.2     3343.8       1.0000
11       2      3243.4 +j     87.2     3244.6       0.9996
11       3      3081.1 +j    115.6     3083.3       0.9993
   TERMINAL TOTAL  9668.2 +j    224.1     9670.8       0.9997
12       1     -3339.2 +j    -12.0     3339.2       1.0000
12       2     -3239.9 +j    -79.0     3240.9       0.9997
12       3     -3078.5 +j   -108.5     3080.4       0.9994
   TERMINAL TOTAL -9657.7 +j   -199.5     9659.7       0.9998

ELEMENT = "Line.LN5896798-1"
12       1      3339.2 +j     12.0     3339.2       1.0000
12       2      3239.9 +j     79.0     3240.9       0.9997
12       3      3078.5 +j    108.5     3080.4       0.9994
   TERMINAL TOTAL  9657.7 +j    199.5     9659.7       0.9998
13       1     -3337.6 +j     -8.7     3337.6       1.0000
13       2     -3238.7 +j    -76.0     3239.6       0.9997
13       3     -3077.6 +j   -106.0     3079.4       0.9994
   TERMINAL TOTAL -9653.9 +j   -190.7     9655.8       0.9998

ELEMENT = "Line.LN5775442-1"
13       1      3337.6 +j      8.7     3337.6       1.0000
13       2      3238.7 +j     76.0     3239.6       0.9997
13       3      3077.6 +j    106.0     3079.4       0.9994
   TERMINAL TOTAL  9653.9 +j    190.7     9655.8       0.9998
14       1     -3333.7 +j     -0.6     3333.7       1.0000
14       2     -3235.9 +j    -68.9     3236.6       0.9998
14       3     -3075.3 +j   -100.0     3076.9       0.9995
   TERMINAL TOTAL -9644.8 +j   -169.5     9646.3       0.9998

ELEMENT = "Line.CAP_1A"
14       1      3331.9 +j      0.1     3331.9       1.0000
   TERMINAL TOTAL  3331.9 +j      0.1     3331.9       1.0000
15       1     -3331.7 +j      0.0     3331.7      -1.0000
   TERMINAL TOTAL -3331.7 +j      0.0     3331.7      -1.0000

ELEMENT = "Line.LN5513564-2"
15       1      3331.7 +j     -0.0     3331.7      -1.0000
15       2      3235.7 +j     68.7     3236.4       0.9998
15       3      3075.1 +j     99.8     3076.7       0.9995
   TERMINAL TOTAL  9642.5 +j    168.5     9644.0       0.9998
16       1     -3330.0 +j      3.5     3330.0      -1.0000
16       2     -3234.5 +j    -65.7     3235.1       0.9998
16       3     -3074.1 +j    -97.3     3075.7       0.9995
   TERMINAL TOTAL -9638.6 +j   -159.5     9639.9       0.9999

ELEMENT = "Line.LN5513564-1"
16       1      3330.0 +j    326.6     3346.0       0.9952
16       2      3234.5 +j    395.7     3258.6       0.9926
16       3      3074.1 +j     97.3     3075.7       0.9995
   TERMINAL TOTAL  9638.6 +j    819.5     9673.4       0.9964
17       1     -3329.2 +j   -325.0     3345.0       0.9953
17       2     -3233.8 +j   -394.1     3257.7       0.9927
17       3     -3073.8 +j    -96.0     3075.3       0.9995
   TERMINAL TOTAL -9636.8 +j   -815.1     9671.2       0.9964

ELEMENT = "Line.XJ171_48332_SW"
17       1      3329.2 +j    325.0     3345.0       0.9953
17       2      3233.8 +j    394.1     3257.7       0.9927
17       3      3073.8 +j     96.0     3075.3       0.9995
   TERMINAL TOTAL  9636.8 +j    815.1     9671.2       0.9964
18       1     -3329.0 +j   -324.8     3344.8       0.9953
18       2     -3233.6 +j   -393.9     3257.5       0.9927
18       3     -3073.6 +j    -95.8     3075.1       0.9995
   TERMINAL TOTAL -9636.2 +j   -814.6     9670.6       0.9964

ELEMENT = "Line.LN6321409-1"
18       1      3329.0 +j    324.8     3344.8       0.9953
18       2      3233.6 +j    393.9     3257.5       0.9927
18       3      3073.6 +j     95.8     3075.1       0.9995
   TERMINAL TOTAL  9636.2 +j    814.6     9670.6       0.9964
19       1     -3326.8 +j   -320.9     3342.3       0.9954
19       2     -3231.8 +j   -389.8     3255.2       0.9928
19       3     -3072.7 +j    -92.5     3074.1       0.9995
   TERMINAL TOTAL -9631.4 +j   -803.3     9664.8       0.9965

ELEMENT = "Line.LN5654466-1"
19       1      3326.8 +j    320.9     3342.3       0.9954
19       2      3231.8 +j    389.8     3255.2       0.9928
19       3      2813.7 +j     22.9     2813.8       1.0000
   TERMINAL TOTAL  9372.4 +j    733.6     9401.0       0.9970
20       1     -3323.5 +j   -315.5     3338.5       0.9955
20       2     -3229.6 +j   -384.0     3252.4       0.9930
20       3     -2813.0 +j    -19.4     2813.0       1.0000
   TERMINAL TOTAL -9366.1 +j   -718.9     9393.7       0.9971

ELEMENT = "Line.LN6291242-1"
20       1      3323.5 +j    315.5     3338.5       0.9955
20       2      3229.6 +j    384.0     3252.4       0.9930
20       3      2813.0 +j     19.4     2813.0       1.0000
   TERMINAL TOTAL  9366.1 +j    718.9     9393.7       0.9971
21       1     -3320.6 +j   -310.8     3335.1       0.9956
21       2     -3227.7 +j   -378.8     3249.9       0.9932
21       3     -2812.3 +j    -16.3     2812.4       1.0000
   TERMINAL TOTAL -9360.6 +j   -706.0     9387.2       0.9972

ELEMENT = "Line.LN5654472-1"
21       1      3280.9 +j    300.2     3294.6       0.9958
21       2      3227.7 +j    378.8     3249.9       0.9932
21       3      2812.3 +j     16.3     2812.4       1.0000
   TERMINAL TOTAL  9320.9 +j    695.4     9346.9       0.9972
22       1     -3278.5 +j   -296.4     3291.9       0.9959
22       2     -3226.1 +j   -374.5     3247.8       0.9933
22       3     -2811.8 +j    -13.8     2811.8       1.0000
   TERMINAL TOTAL -9316.4 +j   -684.7     9341.6       0.9973

ELEMENT = "Line.LN5594242-1"
22       1      3278.5 +j    296.4     3291.9       0.9959
22       2      3226.1 +j    374.5     3247.8       0.9933
22       3      2811.8 +j     13.8     2811.8       1.0000
   TERMINAL TOTAL  9316.4 +j    684.7     9341.6       0.9973
23       1     -3276.0 +j   -292.4     3289.0       0.9960
23       2     -3224.3 +j   -369.9     3245.5       0.9935
23       3     -2811.2 +j    -11.0     2811.3       1.0000
   TERMINAL TOTAL -9311.6 +j   -673.3     9335.9       0.9974

ELEMENT = "Line.LN6351519-1"
23       1      3276.0 +j    292.4     3289.0       0.9960
23       2      3224.3 +j    369.9     3245.5       0.9935
23       3      2805.1 +j      9.4     2805.1       1.0000
   TERMINAL TOTAL  9305.4 +j    671.7     9329.6       0.9974
24       1     -3271.4 +j   -285.0     3283.8       0.9962
24       2     -3221.2 +j   -361.5     3241.4       0.9938
24       3     -2804.0 +j     -4.4     2804.0       1.0000
   TERMINAL TOTAL -9296.6 +j   -651.0     9319.4       0.9976

ELEMENT = "Line.LN6261021-1"
24       1      3271.4 +j    285.0     3283.8       0.9962
24       2      3221.2 +j    361.5     3241.4       0.9938
24       3      2804.0 +j      4.4     2804.0       1.0000
   TERMINAL TOTAL  9296.6 +j    651.0     9319.4       0.9976
25       1     -3266.1 +j   -276.5     3277.8       0.9964
25       2     -3217.5 +j   -351.9     3236.7       0.9941
25       3     -2802.9 +j      1.3     2802.9      -1.0000
   TERMINAL TOTAL -9286.5 +j   -627.1     9307.6       0.9977

ELEMENT = "Line.LN5473440-1"
25       1      3260.7 +j    275.1     3272.3       0.9965
25       2      3217.5 +j    351.9     3236.7       0.9941
25       3      2802.9 +j     -1.3     2802.9      -1.0000
   TERMINAL TOTAL  9281.1 +j    625.6     9302.2       0.9977
26       1     -3257.1 +j   -269.4     3268.3       0.9966
26       2     -3215.0 +j   -345.3     3233.5       0.9943
26       3     -2802.1 +j      5.2     2802.1      -1.0000
   TERMINAL TOTAL -9274.3 +j   -609.5     9294.3       0.9978

ELEMENT = "Line.LN5866268-1"
26       1      3248.1 +j    266.9     3259.1       0.9966
26       2      3215.0 +j    345.3     3233.5       0.9943
26       3      2802.1 +j     -5.2     2802.1      -1.0000
   TERMINAL TOTAL  9265.3 +j    607.1     9285.1       0.9979
27       1     -3245.3 +j   -262.4     3255.9       0.9967
27       2     -3213.0 +j   -340.1     3231.0       0.9944
27       3     -2801.5 +j      8.3     2801.5      -1.0000
   TERMINAL TOTAL -9259.8 +j   -594.2     9278.8       0.9979

ELEMENT = "Line.LN6048634-1"
27       1      3245.3 +j    262.4     3255.9       0.9967
27       2      3213.0 +j    340.1     3231.0       0.9944
27       3      2801.5 +j     -8.3     2801.5      -1.0000
   TERMINAL TOTAL  9259.8 +j    594.2     9278.8       0.9979
28       1     -3243.5 +j   -259.5     3253.9       0.9968
28       2     -3211.8 +j   -336.8     3229.4       0.9945
28       3     -2801.1 +j     10.2     2801.1      -1.0000
   TERMINAL TOTAL -9256.4 +j   -586.1     9274.9       0.9980

ELEMENT = "Line.LN6504019-5"
28       1      3243.5 +j    259.5     3253.9       0.9968
28       2      3211.8 +j    336.8     3229.4       0.9945
28       3      2801.1 +j    -10.2     2801.1      -1.0000
   TERMINAL TOTAL  9256.4 +j    586.1     9274.9       0.9980
29       1     -3241.4 +j   -256.2     3251.5       0.9969
29       2     -3210.3 +j   -332.9     3227.5       0.9947
29       3     -2800.6 +j     12.6     2800.6      -1.0000
   TERMINAL TOTAL -9252.3 +j   -576.5     9270.2       0.9981

ELEMENT = "Line.LN6504020-2"
29       1      3260.1 +j    225.3     3267.9       0.9976
29       2      3174.2 +j    287.7     3187.2       0.9959
29       3      2806.2 +j    -46.9     2806.6      -0.9999
   TERMINAL TOTAL  9240.5 +j    466.1     9252.2       0.9987
34       1     -3249.2 +j   -207.5     3255.8       0.9980
34       2     -3166.9 +j   -268.3     3178.2       0.9964
34       3     -2803.5 +j     58.8     2804.2      -0.9998
   TERMINAL TOTAL -9219.6 +j   -416.9     9229.0       0.9990

ELEMENT = "Line.LN6504018-1"
34       1      3249.2 +j    207.5     3255.8       0.9980
34       2      3166.9 +j    268.3     3178.2       0.9964
34       3      2803.5 +j    -58.8     2804.2      -0.9998
   TERMINAL TOTAL  9219.6 +j    416.9     9229.0       0.9990
41       1     -3236.2 +j   -186.2     3241.5       0.9983
41       2     -3158.1 +j   -245.1     3167.6       0.9970
41       3     -2800.4 +j     73.1     2801.4      -0.9997
   TERMINAL TOTAL -9194.6 +j   -358.2     9201.6       0.9992

ELEMENT = "Line.LN5957526-1"
41       1      3236.2 +j    186.2     3241.5       0.9983
41       2      3158.1 +j    245.1     3167.6       0.9970
41       3      2757.1 +j    -84.6     2758.4      -0.9995
   TERMINAL TOTAL  9151.3 +j    346.7     9157.9       0.9993
45       1     -3234.4 +j   -183.3     3239.6       0.9984
45       2     -3156.9 +j   -242.0     3166.2       0.9971
45       3     -2756.7 +j     86.4     2758.0      -0.9995
   TERMINAL TOTAL -9148.0 +j   -338.9     9154.3       0.9993

ELEMENT = "Line.LN5715052-1"
45       1      3216.3 +j    178.5     3221.2       0.9985
45       2      3156.9 +j    242.0     3166.2       0.9971
45       3      2756.7 +j    -86.4     2758.0      -0.9995
   TERMINAL TOTAL  9129.9 +j    334.1     9136.0       0.9993
51       1     -3211.8 +j   -171.3     3216.4       0.9986
51       2     -3153.9 +j   -234.0     3162.6       0.9973
51       3     -2755.7 +j     91.1     2757.2      -0.9995
   TERMINAL TOTAL -9121.5 +j   -314.2     9126.9       0.9994

ELEMENT = "Line.LN5866308-1"
51       1      3211.8 +j    171.3     3216.4       0.9986
51       2      3148.0 +j    232.4     3156.6       0.9973
51       3      2755.7 +j    -91.1     2757.2      -0.9995
   TERMINAL TOTAL  9115.6 +j    312.6     9120.9       0.9994
52       1     -3210.0 +j   -168.5     3214.5       0.9986
52       2     -3146.9 +j   -229.2     3155.2       0.9974
52       3     -2755.3 +j     92.9     2756.9      -0.9994
   TERMINAL TOTAL -9112.3 +j   -304.8     9117.3       0.9994

ELEMENT = "Line.LN6412354-1"
52       1      3154.2 +j    153.7     3157.9       0.9988
52       2      3146.9 +j    229.2     3155.2       0.9974
52       3      2755.3 +j    -92.9     2756.9      -0.9994
   TERMINAL TOTAL  9056.4 +j    290.0     9061.0       0.9995
53       1     -3153.8 +j   -153.1     3157.5       0.9988
53       2     -3146.6 +j   -228.5     3154.9       0.9974
53       3     -2755.3 +j     93.4     2756.8      -0.9994
   TERMINAL TOTAL -9055.7 +j   -288.2     9060.2       0.9995

ELEMENT = "Line.LN6412355-1"
53       1      3153.8 +j    153.1     3157.5       0.9988
53       2      3146.6 +j    228.5     3154.9       0.9974
53       3      2755.3 +j    -93.4     2756.8      -0.9994
   TERMINAL TOTAL  9055.7 +j    288.2     9060.2       0.9995
54       1     -3151.1 +j   -148.7     3154.6       0.9989
54       2     -3144.6 +j   -223.4     3152.5       0.9975
54       3     -2754.7 +j     96.5     2756.4      -0.9994
   TERMINAL TOTAL -9050.3 +j   -275.6     9054.5       0.9995

ELEMENT = "Line.LN5745355-1"
54       1      3145.7 +j    147.2     3149.1       0.9989
54       2      3144.6 +j    223.4     3152.5       0.9975
54       3      2754.7 +j    -96.5     2756.4      -0.9994
   TERMINAL TOTAL  9044.9 +j    274.2     9049.1       0.9995
56       1     -3144.3 +j   -145.0     3147.6       0.9989
56       2     -3143.6 +j   -220.8     3151.3       0.9975
56       3     -2754.4 +j     98.0     2756.1      -0.9994
   TERMINAL TOTAL -9042.2 +j   -267.8     9046.2       0.9996

ELEMENT = "Line.LN5896834-1"
56       1      3135.3 +j    142.6     3138.5       0.9990
56       2      3143.6 +j    220.8     3151.3       0.9975
56       3      2754.4 +j    -98.0     2756.1      -0.9994
   TERMINAL TOTAL  9033.2 +j    265.4     9037.1       0.9996
57       1     -3131.4 +j   -136.4     3134.3       0.9991
57       2     -3140.7 +j   -213.5     3147.9       0.9977
57       3     -2753.5 +j    102.5     2755.4      -0.9993
   TERMINAL TOTAL -9025.6 +j   -247.4     9029.0       0.9996

ELEMENT = "Line.LN6023352-1"
57       1      3126.0 +j    135.0     3128.9       0.9991
57       2      3140.7 +j    213.5     3147.9       0.9977
57       3      2753.5 +j   -102.5     2755.4      -0.9993
   TERMINAL TOTAL  9020.2 +j    246.0     9023.5       0.9996
58       1     -3123.9 +j   -131.6     3126.6       0.9991
58       2     -3139.1 +j   -209.4     3146.1       0.9978
58       3     -2753.0 +j    104.9     2755.0      -0.9993
   TERMINAL TOTAL -9016.0 +j   -236.2     9019.1       0.9997

ELEMENT = "Line.L9407_48332_SW"
58       1      3123.9 +j    131.6     3126.6       0.9991
58       2      3139.1 +j    209.4     3146.1       0.9978
58       3      2753.0 +j   -104.9     2755.0      -0.9993
   TERMINAL TOTAL  9016.0 +j    236.2     9019.1       0.9997
59       1     -3123.7 +j   -131.4     3126.4       0.9991
59       2     -3138.9 +j   -209.3     3145.9       0.9978
59       3     -2752.9 +j    105.0     2754.9      -0.9993
   TERMINAL TOTAL -9015.5 +j   -235.7     9018.6       0.9997

ELEMENT = "Line.LN6326450-1"
59       1      3123.7 +j    131.4     3126.4       0.9991
59       2      3138.9 +j    209.3     3145.9       0.9978
59       3      2752.9 +j   -105.0     2754.9      -0.9993
   TERMINAL TOTAL  9015.5 +j    235.7     9018.6       0.9997
60       1     -3123.3 +j   -130.8     3126.0       0.9991
60       2     -3138.6 +j   -208.5     3145.6       0.9978
60       3     -2752.8 +j    105.5     2754.8      -0.9993
   TERMINAL TOTAL -9014.7 +j   -233.7     9017.7       0.9997

ELEMENT = "Line.LN5992960-1"
60       1      3123.3 +j    130.8     3126.0       0.9991
60       2      3138.6 +j    208.5     3145.6       0.9978
60       3      2752.8 +j   -105.5     2754.8      -0.9993
   TERMINAL TOTAL  9014.7 +j    233.7     9017.7       0.9997
61       1     -3121.9 +j   -128.6     3124.6       0.9992
61       2     -3137.6 +j   -205.9     3144.4       0.9979
61       3     -2752.5 +j    107.1     2754.6      -0.9992
   TERMINAL TOTAL -9012.1 +j   -227.5     9014.9       0.9997

ELEMENT = "Line.LN5508630-1"
61       1      3121.9 +j    128.6     3124.6       0.9992
61       2      3137.6 +j    205.9     3144.4       0.9979
61       3      2752.5 +j   -107.1     2754.6      -0.9992
   TERMINAL TOTAL  9012.1 +j    227.5     9014.9       0.9997
62       1     -3121.7 +j   -128.3     3124.3       0.9992
62       2     -3137.5 +j   -205.5     3144.2       0.9979
62       3     -2752.5 +j    107.3     2754.6      -0.9992
   TERMINAL TOTAL -9011.6 +j   -226.5     9014.5       0.9997

ELEMENT = "Line.LN5805762-1"
62       1      3121.7 +j    128.3     3124.3       0.9992
62       2      3137.5 +j    205.5     3144.2       0.9979
62       3      2748.4 +j   -108.4     2750.5      -0.9992
   TERMINAL TOTAL  9007.5 +j    225.4     9010.3       0.9997
63       1     -3119.0 +j   -124.0     3121.4       0.9992
63       2     -3135.5 +j   -200.4     3141.9       0.9980
63       3     -2747.8 +j    111.5     2750.0      -0.9992
   TERMINAL TOTAL -9002.2 +j   -212.9     9004.7       0.9997

ELEMENT = "Line.LN6018336-1"
63       1      3115.4 +j    123.0     3117.8       0.9992
63       2      3135.5 +j    200.4     3141.9       0.9980
63       3      2747.8 +j   -111.5     2750.0      -0.9992
   TERMINAL TOTAL  8998.6 +j    211.9     9001.1       0.9997
64       1     -3113.7 +j   -120.4     3116.1       0.9993
64       2     -3134.2 +j   -197.2     3140.4       0.9980
64       3     -2747.4 +j    113.4     2749.7      -0.9991
   TERMINAL TOTAL -8995.3 +j   -204.2     8997.7       0.9997

ELEMENT = "Line.LN5563942-4"
64       1      3113.7 +j    120.4     3116.1       0.9993
64       2      3134.2 +j    197.2     3140.4       0.9980
64       3      2720.6 +j   -120.5     2723.2      -0.9990
   TERMINAL TOTAL  8968.5 +j    197.1     8970.7       0.9998
65       1     -3112.5 +j   -118.4     3114.7       0.9993
65       2     -3133.3 +j   -194.8     3139.3       0.9981
65       3     -2720.3 +j    121.9     2723.0      -0.9990
   TERMINAL TOTAL -8966.1 +j   -191.3     8968.1       0.9998

ELEMENT = "Line.2002200004868472_SW"
65       1      3112.5 +j    118.4     3114.7       0.9993
65       2      3133.3 +j    194.8     3139.3       0.9981
65       3      2720.3 +j   -121.9     2723.0      -0.9990
   TERMINAL TOTAL  8966.1 +j    191.3     8968.1       0.9998
66       1     -3112.3 +j   -118.2     3114.5       0.9993
66       2     -3133.1 +j   -194.7     3139.2       0.9981
66       3     -2720.2 +j    122.1     2722.9      -0.9990
   TERMINAL TOTAL -8965.6 +j   -190.8     8967.6       0.9998

ELEMENT = "Line.CAP_2A"
66       1      3112.3 +j    118.2     3114.5       0.9993
   TERMINAL TOTAL  3112.3 +j    118.2     3114.5       0.9993
67       1     -3112.1 +j   -118.1     3114.3       0.9993
   TERMINAL TOTAL -3112.1 +j   -118.1     3114.3       0.9993

ELEMENT = "Line.LN5563942-5"
67       1      3112.1 +j    118.1     3114.3       0.9993
67       2      3132.9 +j    194.5     3139.0       0.9981
67       3      2720.1 +j   -122.2     2722.8      -0.9990
   TERMINAL TOTAL  8965.1 +j    190.3     8967.1       0.9998
68       1     -3111.9 +j   -117.7     3114.1       0.9993
68       2     -3132.8 +j   -194.1     3138.8       0.9981
68       3     -2720.0 +j    122.4     2722.8      -0.9990
   TERMINAL TOTAL -8964.7 +j   -189.4     8966.7       0.9998

ELEMENT = "Line.LN5563942-3"
68       1      3111.9 +j    429.0     3141.3       0.9906
68       2      3132.8 +j    509.2     3173.9       0.9870
68       3      2720.0 +j    199.8     2727.3       0.9973
   TERMINAL TOTAL  8964.7 +j   1138.1     9036.6       0.9920
69       1     -3110.2 +j   -426.4     3139.3       0.9907
69       2     -3131.6 +j   -506.1     3172.3       0.9872
69       3     -2719.7 +j   -198.1     2726.9       0.9974
   TERMINAL TOTAL -8961.5 +j  -1130.7     9032.6       0.9921

ELEMENT = "Line.LN5896833-1"
69       1      3110.2 +j    426.4     3139.3       0.9907
69       2      3131.6 +j    506.1     3172.3       0.9872
69       3      2719.7 +j    198.1     2726.9       0.9974
   TERMINAL TOTAL  8961.5 +j   1130.7     9032.6       0.9921
70       1     -3106.2 +j   -420.1     3134.5       0.9910
70       2     -3128.8 +j   -498.6     3168.2       0.9875
70       3     -2718.8 +j   -193.8     2725.7       0.9975
   TERMINAL TOTAL -8953.8 +j  -1112.5     9022.6       0.9924

ELEMENT = "Line.LN5805761-1"
70       1      3106.2 +j    420.1     3134.5       0.9910
70       2      3113.9 +j    494.6     3153.0       0.9876
70       3      2718.8 +j    193.8     2725.7       0.9975
   TERMINAL TOTAL  8938.9 +j   1108.5     9007.4       0.9924
71       1     -3104.0 +j   -416.7     3131.8       0.9911
71       2     -3112.5 +j   -490.6     3150.9       0.9878
71       3     -2718.4 +j   -191.7     2725.2       0.9975
   TERMINAL TOTAL -8934.9 +j  -1099.0     9002.2       0.9925

ELEMENT = "Line.LN5799561-1"
71       1       665.4 +j    -95.0      672.2      -0.9900
71       2       800.4 +j    -48.1      801.8      -0.9982
71       3      1066.6 +j     23.9     1066.9       0.9997
   TERMINAL TOTAL  2532.4 +j   -119.2     2535.2      -0.9989
73       1      -665.4 +j     95.3      672.2      -0.9899
73       2      -800.0 +j     48.4      801.5      -0.9982
73       3     -1066.2 +j    -22.9     1066.5       0.9998
   TERMINAL TOTAL -2531.7 +j    120.8     2534.5      -0.9989

ELEMENT = "Line.LN5799561-2"
73       1       660.0 +j    -96.8      667.1      -0.9894
73       2       800.0 +j    -48.4      801.5      -0.9982
73       3      1066.2 +j     22.9     1066.5       0.9998
   TERMINAL TOTAL  2526.3 +j   -122.3     2529.2      -0.9988
79       1      -660.0 +j     97.0      667.1      -0.9894
79       2      -799.7 +j     48.7      801.2      -0.9982
79       3     -1065.9 +j    -22.0     1066.2       0.9998
   TERMINAL TOTAL -2525.6 +j    123.7     2528.7      -0.9988

ELEMENT = "Line.A8611_48332_SW"
79       1       660.0 +j    -97.0      667.1      -0.9894
79       2       799.7 +j    -48.7      801.2      -0.9982
79       3      1065.9 +j     22.0     1066.2       0.9998
   TERMINAL TOTAL  2525.6 +j   -123.7     2528.7      -0.9988
80       1      -660.0 +j     97.0      667.1      -0.9894
80       2      -799.7 +j     48.7      801.2      -0.9982
80       3     -1065.9 +j    -22.0     1066.2       0.9998
   TERMINAL TOTAL -2525.6 +j    123.7     2528.6      -0.9988

ELEMENT = "Line.LN5594236-1"
80       1       660.0 +j    -97.0      667.1      -0.9894
80       2       799.7 +j    -48.7      801.2      -0.9982
80       3      1065.9 +j     22.0     1066.2       0.9998
   TERMINAL TOTAL  2525.6 +j   -123.7     2528.6      -0.9988
82       1      -660.0 +j     97.2      667.1      -0.9893
82       2      -799.5 +j     48.9      801.0      -0.9981
82       3     -1065.7 +j    -21.4     1065.9       0.9998
   TERMINAL TOTAL -2525.2 +j    124.6     2528.3      -0.9988

ELEMENT = "Line.LN5503575-1"
82       1       660.0 +j    -97.2      667.1      -0.9893
82       2       799.5 +j    -48.9      801.0      -0.9981
82       3      1050.2 +j     17.3     1050.3       0.9999
   TERMINAL TOTAL  2509.7 +j   -128.8     2513.0      -0.9987
84       1      -660.0 +j     97.4      667.1      -0.9893
84       2      -799.2 +j     49.1      800.7      -0.9981
84       3     -1050.0 +j    -16.6     1050.1       0.9999
   TERMINAL TOTAL -2509.2 +j    129.8     2512.5      -0.9987

ELEMENT = "Line.LN6018331-1"
84       1       660.0 +j    -97.4      667.1      -0.9893
84       2       799.2 +j    -49.1      800.7      -0.9981
84       3      1012.8 +j      6.7     1012.8       1.0000
   TERMINAL TOTAL  2472.0 +j   -139.7     2476.0      -0.9984
86       1      -660.0 +j     97.5      667.2      -0.9893
86       2      -799.0 +j     49.3      800.5      -0.9981
86       3     -1012.6 +j     -6.1     1012.6       1.0000
   TERMINAL TOTAL -2471.6 +j    140.7     2475.6      -0.9984

ELEMENT = "Line.LN6291244-1"
86       1       651.0 +j   -100.0      658.6      -0.9884
86       2       799.0 +j    -49.3      800.5      -0.9981
86       3      1012.6 +j      6.1     1012.6       1.0000
   TERMINAL TOTAL  2462.6 +j   -143.1     2466.8      -0.9983
90       1      -651.0 +j    100.3      658.6      -0.9883
90       2      -798.6 +j     49.6      800.1      -0.9981
90       3     -1012.3 +j     -5.0     1012.3       1.0000
   TERMINAL TOTAL -2461.8 +j    144.9     2466.0      -0.9983

ELEMENT = "Line.LN5473436-1"
90       1       651.0 +j   -100.3      658.6      -0.9883
90       2       798.6 +j    -49.6      800.1      -0.9981
90       3      1012.3 +j      5.0     1012.3       1.0000
   TERMINAL TOTAL  2461.8 +j   -144.9     2466.0      -0.9983
91       1      -651.0 +j    100.3      658.6      -0.9883
91       2      -798.6 +j     49.6      800.1      -0.9981
91       3     -1012.3 +j     -5.0     1012.3       1.0000
   TERMINAL TOTAL -2461.8 +j    144.9     2466.0      -0.9983

ELEMENT = "Line.LN5473436-2"
91       1       651.0 +j   -100.3      658.6      -0.9883
91       2       798.6 +j    -49.6      800.1      -0.9981
91       3      1006.1 +j      3.4     1006.1       1.0000
   TERMINAL TOTAL  2455.6 +j   -146.5     2460.0      -0.9982
93       1      -650.9 +j    100.4      658.6      -0.9883
93       2      -798.4 +j     49.8      799.9      -0.9981
93       3     -1005.9 +j     -2.9     1005.9       1.0000
   TERMINAL TOTAL -2455.2 +j    147.4     2459.6      -0.9982

ELEMENT = "Line.LN5896825-1"
93       1       650.9 +j   -100.4      658.6      -0.9883
93       2       798.4 +j    -49.8      799.9      -0.9981
93       3       995.6 +j      0.1      995.6       1.0000
   TERMINAL TOTAL  2444.9 +j   -150.1     2449.5      -0.9981
95       1      -650.9 +j    100.6      658.6      -0.9883
95       2      -798.2 +j     50.0      799.8      -0.9980
95       3      -995.4 +j      0.3      995.4      -1.0000
   TERMINAL TOTAL -2444.6 +j    150.9     2449.2      -0.9981

ELEMENT = "Line.LN6351510-1"
95       1       650.9 +j   -100.6      658.6      -0.9883
95       2       798.2 +j    -50.0      799.8      -0.9980
95       3       995.4 +j     -0.3      995.4      -1.0000
   TERMINAL TOTAL  2444.6 +j   -150.9     2449.2      -0.9981
96       1      -650.9 +j    100.6      658.6      -0.9883
96       2      -798.2 +j     50.0      799.7      -0.9980
96       3      -995.4 +j      0.3      995.4      -1.0000
   TERMINAL TOTAL -2444.5 +j    150.9     2449.1      -0.9981

ELEMENT = "Line.LN5654471-1"
96       1       650.9 +j   -100.6      658.6      -0.9883
96       2       788.3 +j    -52.6      790.0      -0.9978
96       3       995.4 +j     -0.3      995.4      -1.0000
   TERMINAL TOTAL  2434.6 +j   -153.5     2439.4      -0.9980
98       1      -650.9 +j    100.8      658.6      -0.9882
98       2      -788.0 +j     52.9      789.8      -0.9978
98       3      -995.2 +j      1.0      995.2      -1.0000
   TERMINAL TOTAL -2434.1 +j    154.6     2439.0      -0.9980

ELEMENT = "Line.LN5745348-1"
98       1       650.9 +j   -100.8      658.6      -0.9882
98       2       764.3 +j    -59.1      766.6      -0.9970
98       3       995.2 +j     -1.0      995.2      -1.0000
   TERMINAL TOTAL  2410.4 +j   -160.8     2415.8      -0.9978
99       1      -650.9 +j    101.0      658.7      -0.9882
99       2      -764.1 +j     59.3      766.4      -0.9970
99       3      -995.0 +j      1.6      995.0      -1.0000
   TERMINAL TOTAL -2410.0 +j    161.8     2415.4      -0.9978

ELEMENT = "Line.LN5504876-1"
99       1        55.9 +j     14.8       57.8       0.9667
99       2        35.6 +j      9.3       36.8       0.9678
99       3         0.0 +j     -0.1        0.1      -0.0606
   TERMINAL TOTAL    91.5 +j     23.9       94.6       0.9675
100      1       -55.9 +j    -14.8       57.8       0.9667
100      2       -35.6 +j     -9.3       36.8       0.9677
100      3        -0.0 +j      0.1        0.1      -0.0606
   TERMINAL TOTAL   -91.5 +j    -24.0       94.6       0.9674

ELEMENT = "Line.LN5928744-1"
100      1        55.9 +j     14.8       57.8       0.9667
100      2        35.6 +j      9.3       36.8       0.9677
100      3         0.0 +j     -0.1        0.1      -0.0606
   TERMINAL TOTAL    91.5 +j     24.0       94.6       0.9674
102      1       -55.9 +j    -14.8       57.8       0.9666
102      2       -35.6 +j     -9.3       36.8       0.9677
102      3        -0.0 +j      0.1        0.1      -0.0606
   TERMINAL TOTAL   -91.5 +j    -24.0       94.6       0.9673

ELEMENT = "Line.LN5927423-1"
102      1        50.5 +j     13.4       52.2       0.9667
102      2        35.6 +j      9.3       36.8       0.9677
102      3         0.0 +j     -0.1        0.1      -0.0606
   TERMINAL TOTAL    86.1 +j     22.5       89.0       0.9674
106      1       -50.5 +j    -13.4       52.2       0.9666
106      2       -35.6 +j     -9.3       36.8       0.9675
106      3        -0.0 +j      0.1        0.1      -0.0606
   TERMINAL TOTAL   -86.1 +j    -22.6       89.0       0.9672

ELEMENT = "Line.LN5684911-1"
106      1        -0.0 +j     -0.1        0.1       0.0287
106      2        35.6 +j      9.3       36.8       0.9675
106      3         0.0 +j     -0.1        0.1      -0.0606
   TERMINAL TOTAL    35.6 +j      9.1       36.7       0.9686
111      1         0.0 +j      0.1        0.1       0.0286
111      2       -35.6 +j     -9.3       36.8       0.9673
111      3        -0.0 +j      0.1        0.1      -0.0606
   TERMINAL TOTAL   -35.6 +j     -9.2       36.8       0.9681

ELEMENT = "Line.LN5957494-1"
111      1        -0.0 +j     -0.1        0.1       0.0286
111      2        35.6 +j      9.3       36.8       0.9673
111      3         0.0 +j     -0.1        0.1      -0.0606
   TERMINAL TOTAL    35.6 +j      9.2       36.8       0.9681
124      1         0.0 +j      0.0        0.0       0.6815
124      2       -35.6 +j     -9.4       36.8       0.9669
124      3         0.0 +j     -0.0        0.0      -0.3447
   TERMINAL TOTAL   -35.6 +j     -9.4       36.8       0.9669

ELEMENT = "Line.LN6200532-1"
99       1       595.0 +j   -115.8      606.1      -0.9816
99       2       728.5 +j    -68.5      731.7      -0.9956
99       3       995.0 +j     -1.4      995.0      -1.0000
   TERMINAL TOTAL  2318.5 +j   -185.7     2325.9      -0.9968
101      1      -595.0 +j    116.0      606.2      -0.9815
101      2      -728.3 +j     68.7      731.5      -0.9956
101      3      -994.7 +j      2.2      994.7      -1.0000
   TERMINAL TOTAL -2317.9 +j    186.9     2325.5      -0.9968

ELEMENT = "Line.LN5594239-1"
101      1       581.5 +j   -119.6      593.6      -0.9795
101      2       728.3 +j    -68.7      731.5      -0.9956
101      3       994.7 +j     -2.2      994.7      -1.0000
   TERMINAL TOTAL  2304.4 +j   -190.5     2312.3      -0.9966
104      1      -581.5 +j    119.8      593.7      -0.9794
104      2      -728.0 +j     68.9      731.3      -0.9955
104      3      -994.4 +j      3.0      994.4      -1.0000
   TERMINAL TOTAL -2303.9 +j    191.7     2311.8      -0.9966

ELEMENT = "Line.LN6078767-1"
104      1       581.5 +j   -119.8      593.7      -0.9794
104      2       728.0 +j    -68.9      731.3      -0.9955
104      3       984.1 +j     -5.7      984.1      -1.0000
   TERMINAL TOTAL  2293.6 +j   -194.4     2301.8      -0.9964
105      1      -581.5 +j    119.9      593.7      -0.9794
105      2      -727.9 +j     69.0      731.2      -0.9955
105      3      -984.0 +j      6.0      984.0      -1.0000
   TERMINAL TOTAL -2293.4 +j    194.8     2301.7      -0.9964

ELEMENT = "Line.LN5503576-1"
105      1       581.5 +j   -119.9      593.7      -0.9794
105      2       727.9 +j    -69.0      731.2      -0.9955
105      3       984.0 +j     -6.0      984.0      -1.0000
   TERMINAL TOTAL  2293.4 +j   -194.8     2301.7      -0.9964
107      1      -581.5 +j    120.0      593.7      -0.9794
107      2      -727.7 +j     69.1      731.0      -0.9955
107      3      -983.8 +j      6.5      983.8      -1.0000
   TERMINAL TOTAL -2293.0 +j    195.6     2301.4      -0.9964

ELEMENT = "Line.LN6200527-1"
107      1       581.5 +j   -120.0      593.7      -0.9794
107      2       727.7 +j    -69.1      731.0      -0.9955
107      3       973.5 +j     -9.2      973.5      -1.0000
   TERMINAL TOTAL  2282.7 +j   -198.3     2291.3      -0.9962
110      1      -581.5 +j    120.2      593.8      -0.9793
110      2      -727.5 +j     69.3      730.8      -0.9955
110      3      -973.3 +j      9.9      973.3      -0.9999
   TERMINAL TOTAL -2282.2 +j    199.4     2290.9      -0.9962

ELEMENT = "Line.LN6170293-1"
110      1       576.1 +j   -121.6      588.8      -0.9784
110      2       727.5 +j    -69.3      730.8      -0.9955
110      3       973.3 +j     -9.9      973.3      -0.9999
   TERMINAL TOTAL  2276.8 +j   -200.8     2285.7      -0.9961
114      1      -576.1 +j    121.7      588.8      -0.9784
114      2      -727.3 +j     69.4      730.6      -0.9955
114      3      -973.1 +j     10.3      973.2      -0.9999
   TERMINAL TOTAL -2276.6 +j    201.4     2285.5      -0.9961

ELEMENT = "Line.LN5745347-1"
114      1       557.2 +j   -126.7      571.4      -0.9751
114      2       727.3 +j    -69.4      730.6      -0.9955
114      3       973.1 +j    -10.3      973.2      -0.9999
   TERMINAL TOTAL  2257.6 +j   -206.5     2267.1      -0.9958
115      1      -557.2 +j    126.8      571.4      -0.9751
115      2      -727.2 +j     69.5      730.5      -0.9955
115      3      -973.0 +j     10.7      973.1      -0.9999
   TERMINAL TOTAL -2257.4 +j    207.0     2266.9      -0.9958

ELEMENT = "Line.LN5957493-1"
115      1       557.2 +j   -126.8      571.4      -0.9751
115      2       727.2 +j    -69.5      730.5      -0.9955
115      3       957.5 +j    -14.8      957.6      -0.9999
   TERMINAL TOTAL  2241.9 +j   -211.1     2251.8      -0.9956
118      1      -557.2 +j    127.0      571.5      -0.9750
118      2      -726.9 +j     69.7      730.3      -0.9954
118      3      -957.2 +j     15.5      957.4      -0.9999
   TERMINAL TOTAL -2241.4 +j    212.2     2251.4      -0.9955

ELEMENT = "Line.LN6078768-1"
118      1       557.2 +j   -127.0      571.5      -0.9750
118      2       654.8 +j    -88.8      660.8      -0.9909
118      3       957.2 +j    -15.5      957.4      -0.9999
   TERMINAL TOTAL  2169.3 +j   -231.3     2181.6      -0.9944
119      1      -557.2 +j    127.1      571.5      -0.9750
119      2      -654.7 +j     88.9      660.7      -0.9909
119      3      -957.1 +j     15.8      957.2      -0.9999
   TERMINAL TOTAL -2169.0 +j    231.8     2181.4      -0.9943

ELEMENT = "Line.LN6351511-1"
119      1       557.2 +j   -127.1      571.5      -0.9750
119      2       644.8 +j    -91.5      651.3      -0.9901
119      3       957.1 +j    -15.8      957.2      -0.9999
   TERMINAL TOTAL  2159.2 +j   -234.5     2171.8      -0.9942
121      1      -557.2 +j    127.2      571.6      -0.9749
121      2      -644.7 +j     91.6      651.2      -0.9901
121      3      -956.9 +j     16.3      957.0      -0.9999
   TERMINAL TOTAL -2158.8 +j    235.2     2171.6      -0.9941

ELEMENT = "Line.LN5958866-1"
121      1       557.2 +j   -127.2      571.6      -0.9749
121      2       644.7 +j    -91.6      651.2      -0.9901
121      3       946.6 +j    -19.1      946.8      -0.9998
   TERMINAL TOTAL  2148.5 +j   -237.9     2161.6      -0.9939
128      1      -557.2 +j    127.6      571.7      -0.9748
128      2      -644.3 +j     91.8      650.9      -0.9900
128      3      -946.1 +j     20.3      946.3      -0.9998
   TERMINAL TOTAL -2147.7 +j    239.7     2161.0      -0.9938

ELEMENT = "Line.A8645_48332_SW"
128      1       557.2 +j   -127.6      571.7      -0.9748
128      2       644.3 +j    -91.8      650.9      -0.9900
128      3       946.1 +j    -20.3      946.3      -0.9998
   TERMINAL TOTAL  2147.7 +j   -239.7     2161.0      -0.9938
129      1      -557.2 +j    127.6      571.7      -0.9748
129      2      -644.3 +j     91.8      650.9      -0.9900
129      3      -946.1 +j     20.3      946.3      -0.9998
   TERMINAL TOTAL -2147.7 +j    239.7     2161.0      -0.9938

ELEMENT = "Line.LN6201850-1"
129      1       557.2 +j   -127.6      571.7      -0.9748
129      2       644.3 +j    -91.8      650.9      -0.9900
129      3       946.1 +j    -20.3      946.3      -0.9998
   TERMINAL TOTAL  2147.7 +j   -239.7     2161.0      -0.9938
131      1      -557.3 +j    127.8      571.7      -0.9747
131      2      -644.1 +j     92.0      650.7      -0.9900
131      3      -945.8 +j     21.0      946.0      -0.9998
   TERMINAL TOTAL -2147.2 +j    240.7     2160.7      -0.9938

ELEMENT = "Line.LN6291252-1"
131      1       542.9 +j   -131.6      558.6      -0.9719
131      2       644.1 +j    -92.0      650.7      -0.9900
131      3       945.8 +j    -21.0      946.0      -0.9998
   TERMINAL TOTAL  2132.8 +j   -244.6     2146.8      -0.9935
132      1      -542.9 +j    131.7      558.6      -0.9718
132      2      -644.0 +j     92.0      650.5      -0.9899
132      3      -945.6 +j     21.6      945.8      -0.9997
   TERMINAL TOTAL -2132.4 +j    245.4     2146.5      -0.9934

ELEMENT = "Line.LN6291252-2"
132      1       542.9 +j   -131.7      558.6      -0.9718
132      2       644.0 +j    -92.0      650.5      -0.9899
132      3       945.6 +j    -21.6      945.8      -0.9997
   TERMINAL TOTAL  2132.4 +j   -245.4     2146.5      -0.9934
136      1      -542.9 +j    131.8      558.7      -0.9718
136      2      -643.9 +j     92.1      650.4      -0.9899
136      3      -945.5 +j     21.9      945.7      -0.9997
   TERMINAL TOTAL -2132.2 +j    245.8     2146.3      -0.9934

ELEMENT = "Line.LN6018341-1"
136      1       537.5 +j   -133.3      553.8      -0.9706
136      2       643.9 +j    -92.1      650.4      -0.9899
136      3       945.5 +j    -21.9      945.7      -0.9997
   TERMINAL TOTAL  2126.8 +j   -247.3     2141.2      -0.9933
141      1      -537.5 +j    133.5      553.8      -0.9705
141      2      -643.7 +j     92.2      650.2      -0.9899
141      3      -945.2 +j     22.6      945.4      -0.9997
   TERMINAL TOTAL -2126.4 +j    248.3     2140.8      -0.9932

ELEMENT = "Line.LN6291253-1"
141      1       537.5 +j   -133.5      553.8      -0.9705
141      2       643.7 +j    -92.2      650.2      -0.9899
141      3       525.4 +j   -135.3      542.6      -0.9684
   TERMINAL TOTAL  1706.6 +j   -361.0     1744.4      -0.9784
143      1      -537.4 +j    133.6      553.8      -0.9705
143      2      -643.5 +j     92.4      650.1      -0.9898
143      3      -525.4 +j    135.4      542.6      -0.9684
   TERMINAL TOTAL -1706.4 +j    361.4     1744.3      -0.9783

ELEMENT = "Line.LN6170302-1"
143      1       537.4 +j   -133.6      553.8      -0.9705
143      2       643.5 +j    -92.4      650.1      -0.9898
143      3       519.2 +j   -137.1      537.0      -0.9669
   TERMINAL TOTAL  1700.2 +j   -363.1     1738.6      -0.9779
148      1      -537.3 +j    133.7      553.7      -0.9704
148      2      -643.4 +j     92.7      650.0      -0.9898
148      3      -519.2 +j    137.2      537.1      -0.9668
   TERMINAL TOTAL -1700.0 +j    363.6     1738.4      -0.9779

ELEMENT = "Line.LN6321427-1"
148      1       528.3 +j   -136.1      545.6      -0.9684
148      2       643.4 +j    -92.7      650.0      -0.9898
148      3       519.2 +j   -137.2      537.1      -0.9668
   TERMINAL TOTAL  1691.0 +j   -366.1     1730.1      -0.9774
153      1      -528.2 +j    136.2      545.5      -0.9683
153      2      -643.2 +j     93.0      649.9      -0.9897
153      3      -519.2 +j    137.4      537.1      -0.9667
   TERMINAL TOTAL -1690.7 +j    366.6     1730.0      -0.9773

ELEMENT = "Line.LN5531195-1"
153      1       528.2 +j   -136.2      545.5      -0.9683
153      2       596.8 +j   -105.3      606.0      -0.9848
153      3       519.2 +j   -137.4      537.1      -0.9667
   TERMINAL TOTAL  1644.2 +j   -378.9     1687.3      -0.9745
156      1      -528.2 +j    136.3      545.5      -0.9683
156      2      -596.7 +j    105.4      606.0      -0.9848
156      3      -519.2 +j    137.5      537.1      -0.9667
   TERMINAL TOTAL -1644.1 +j    379.2     1687.3      -0.9744

ELEMENT = "Line.LN6106511-1"
156      1       528.2 +j   -136.3      545.5      -0.9683
156      2       596.7 +j   -105.4      606.0      -0.9848
156      3       519.2 +j   -137.5      537.1      -0.9667
   TERMINAL TOTAL  1644.1 +j   -379.2     1687.3      -0.9744
159      1      -527.5 +j    136.5      544.9      -0.9681
159      2      -595.8 +j    105.7      605.1      -0.9846
159      3      -518.6 +j    137.7      536.5      -0.9665
   TERMINAL TOTAL -1641.9 +j    379.8     1685.3      -0.9743

ELEMENT = "Line.LN6351524-1"
159      1       527.5 +j   -136.5      544.9      -0.9681
159      2       595.8 +j   -105.7      605.1      -0.9846
159      3       514.5 +j   -138.8      532.8      -0.9655
   TERMINAL TOTAL  1637.8 +j   -380.9     1681.5      -0.9740
164      1      -526.8 +j    136.7      544.2      -0.9680
164      2      -595.0 +j    106.0      604.3      -0.9845
164      3      -513.9 +j    139.0      532.3      -0.9653
   TERMINAL TOTAL -1635.6 +j    381.6     1679.5      -0.9738

ELEMENT = "Line.LN6109158-1"
164      1       585.0 +j   -136.5      600.7      -0.9738
164      2       653.2 +j   -105.9      661.7      -0.9871
164      3       572.1 +j   -138.8      588.7      -0.9718
   TERMINAL TOTAL  1810.2 +j   -381.2     1849.9      -0.9785
168      1      -584.1 +j    136.8      599.9      -0.9737
168      2      -652.1 +j    106.2      660.7      -0.9870
168      3      -571.3 +j    139.1      588.0      -0.9716
   TERMINAL TOTAL -1807.4 +j    382.1     1847.4      -0.9784

ELEMENT = "Line.LN5473449-1"
168      1       584.1 +j   -136.8      599.9      -0.9737
168      2       652.1 +j   -106.2      660.7      -0.9870
168      3       561.0 +j   -141.9      578.6      -0.9695
   TERMINAL TOTAL  1797.1 +j   -384.8     1837.8      -0.9778
170      1      -583.0 +j    137.1      598.9      -0.9735
170      2      -650.7 +j    106.7      659.4      -0.9868
170      3      -560.1 +j    142.1      577.8      -0.9693
   TERMINAL TOTAL -1793.8 +j    385.9     1834.8      -0.9776

ELEMENT = "Line.LN6079946-1"
170      1       583.0 +j   -137.1      598.9      -0.9735
170      2       644.8 +j   -108.2      653.8      -0.9862
170      3       560.1 +j   -142.1      577.8      -0.9693
   TERMINAL TOTAL  1787.9 +j   -387.4     1829.4      -0.9773
178      1      -581.7 +j    137.4      597.7      -0.9732
178      2      -643.3 +j    108.7      652.4      -0.9860
178      3      -559.0 +j    142.5      576.9      -0.9690
   TERMINAL TOTAL -1784.0 +j    388.6     1825.9      -0.9771

ELEMENT = "Line.LN6256144-4"
178      1       581.7 +j   -137.4      597.7      -0.9732
178      2       643.3 +j   -108.7      652.4      -0.9860
178      3       552.8 +j   -144.1      571.3      -0.9677
   TERMINAL TOTAL  1777.9 +j   -390.3     1820.2      -0.9767
183      1      -581.0 +j    137.6      597.0      -0.9731
183      2      -642.4 +j    109.0      651.6      -0.9859
183      3      -552.2 +j    144.3      570.8      -0.9675
   TERMINAL TOTAL -1775.6 +j    391.0     1818.1      -0.9766

ELEMENT = "Line.LN6256144-3"
183      1       581.0 +j   -137.6      597.0      -0.9731
183      2       642.4 +j   -109.0      651.6      -0.9859
183      3       552.2 +j   -144.3      570.8      -0.9675
   TERMINAL TOTAL  1775.6 +j   -391.0     1818.1      -0.9766
187      1      -580.0 +j    137.8      596.2      -0.9729
187      2      -641.3 +j    109.4      650.6      -0.9858
187      3      -551.5 +j    144.6      570.1      -0.9673
   TERMINAL TOTAL -1772.8 +j    391.8     1815.6      -0.9764

ELEMENT = "Line.LN6256144-1"
187      1       580.0 +j   -137.8      596.2      -0.9729
187      2       641.3 +j   -109.4      650.6      -0.9858
187      3       545.3 +j   -146.2      564.6      -0.9659
   TERMINAL TOTAL  1766.7 +j   -393.5     1809.9      -0.9761
188      1      -579.6 +j    138.0      595.8      -0.9728
188      2      -640.8 +j    109.6      650.1      -0.9857
188      3      -545.0 +j    146.3      564.3      -0.9658
   TERMINAL TOTAL -1765.4 +j    393.8     1808.8      -0.9760

ELEMENT = "Line.LN5527400-1"
188      1       579.6 +j   -138.0      595.8      -0.9728
188      2       634.9 +j   -111.1      644.5      -0.9850
188      3       545.0 +j   -146.3      564.3      -0.9658
   TERMINAL TOTAL  1759.5 +j   -395.4     1803.4      -0.9757
189      1      -579.6 +j    138.0      595.8      -0.9728
189      2      -634.8 +j    111.2      644.5      -0.9850
189      3      -544.9 +j    146.3      564.2      -0.9658
   TERMINAL TOTAL -1759.3 +j    395.5     1803.2      -0.9757

ELEMENT = "Line.LN5955063-1"
189      1       579.6 +j   -138.0      595.8      -0.9728
189      2       634.8 +j   -111.2      644.5      -0.9850
189      3       544.9 +j   -146.3      564.2      -0.9658
   TERMINAL TOTAL  1759.3 +j   -395.5     1803.2      -0.9757
200      1      -578.7 +j    138.2      595.0      -0.9727
200      2      -633.8 +j    111.5      643.6      -0.9849
200      3      -544.3 +j    146.6      563.7      -0.9656
   TERMINAL TOTAL -1756.8 +j    396.2     1800.9      -0.9755

ELEMENT = "Line.LN6440069-1"
200      1       578.7 +j   -138.2      595.0      -0.9727
200      2       633.8 +j   -111.5      643.6      -0.9849
200      3       544.3 +j   -146.6      563.7      -0.9656
   TERMINAL TOTAL  1756.8 +j   -396.2     1800.9      -0.9755
204      1      -578.0 +j    138.4      594.3      -0.9725
204      2      -633.0 +j    111.8      642.8      -0.9848
204      3      -543.7 +j    146.7      563.1      -0.9655
   TERMINAL TOTAL -1754.7 +j    396.9     1799.0      -0.9754

ELEMENT = "Line.LN5623403-1"
204      1       578.0 +j   -138.4      594.3      -0.9725
204      2       633.0 +j   -111.8      642.8      -0.9848
204      3       539.6 +j   -147.8      559.5      -0.9645
   TERMINAL TOTAL  1750.5 +j   -398.0     1795.2      -0.9751
210      1      -577.0 +j    138.6      593.5      -0.9723
210      2      -631.9 +j    112.1      641.7      -0.9846
210      3      -538.8 +j    148.1      558.8      -0.9643
   TERMINAL TOTAL -1747.8 +j    398.9     1792.7      -0.9749

ELEMENT = "Line.LN5502533-1"
210      1       534.9 +j   -157.3      557.6      -0.9594
210      2       621.2 +j   -122.4      633.2      -0.9811
210      3       531.6 +j   -157.5      554.4      -0.9588
   TERMINAL TOTAL  1687.8 +j   -437.2     1743.5      -0.9681
220      1      -533.6 +j    157.6      556.4      -0.9590
220      2      -619.5 +j    123.0      631.6      -0.9809
220      3      -530.5 +j    157.8      553.5      -0.9585
   TERMINAL TOTAL -1683.6 +j    438.4     1739.8      -0.9677

ELEMENT = "Line.LN6259995-1"
220      1       521.0 +j   -161.0      545.3      -0.9554
220      2       619.5 +j   -123.0      631.6      -0.9809
220      3       530.5 +j   -157.8      553.5      -0.9585
   TERMINAL TOTAL  1671.0 +j   -441.8     1728.5      -0.9668
226      1      -520.0 +j    161.2      544.4      -0.9552
226      2      -618.1 +j    123.4      630.3      -0.9806
226      3      -529.6 +j    158.1      552.7      -0.9582
   TERMINAL TOTAL -1667.8 +j    442.8     1725.5      -0.9665

ELEMENT = "Line.LN6350541-1"
226      1       511.0 +j   -163.6      536.6      -0.9524
226      2       618.1 +j   -123.4      630.3      -0.9806
226      3       529.6 +j   -158.1      552.7      -0.9582
   TERMINAL TOTAL  1658.8 +j   -445.2     1717.5      -0.9658
228      1      -510.1 +j    163.9      535.8      -0.9521
228      2      -616.8 +j    123.8      629.1      -0.9804
228      3      -528.7 +j    158.5      551.9      -0.9579
   TERMINAL TOTAL -1655.6 +j    446.2     1714.7      -0.9656

ELEMENT = "Line.LN5502531-1"
228      1       510.1 +j   -163.9      535.8      -0.9521
228      2       606.9 +j   -126.5      620.0      -0.9790
228      3       528.7 +j   -158.5      551.9      -0.9579
   TERMINAL TOTAL  1645.7 +j   -448.8     1705.8      -0.9648
229      1      -509.8 +j    163.9      535.5      -0.9520
229      2      -606.4 +j    126.6      619.5      -0.9789
229      3      -528.4 +j    158.6      551.7      -0.9578
   TERMINAL TOTAL -1644.6 +j    449.1     1704.8      -0.9647

ELEMENT = "Line.LN6290212-1"
229      1       509.8 +j   -163.9      535.5      -0.9520
229      2       606.4 +j   -126.6      619.5      -0.9789
229      3       528.4 +j   -158.6      551.7      -0.9578
   TERMINAL TOTAL  1644.6 +j   -449.1     1704.8      -0.9647
230      1      -508.9 +j    164.1      534.7      -0.9517
230      2      -605.3 +j    127.0      618.5      -0.9787
230      3      -527.6 +j    158.8      551.0      -0.9575
   TERMINAL TOTAL -1641.8 +j    450.0     1702.4      -0.9644

ELEMENT = "Line.LN6138608-3"
230      1       490.8 +j   -169.0      519.1      -0.9455
230      2       605.3 +j   -127.0      618.5      -0.9787
230      3       527.6 +j   -158.8      551.0      -0.9575
   TERMINAL TOTAL  1623.7 +j   -454.8     1686.2      -0.9629
231      1      -490.1 +j    169.1      518.5      -0.9453
231      2      -604.2 +j    127.3      617.5      -0.9785
231      3      -526.9 +j    159.1      550.4      -0.9573
   TERMINAL TOTAL -1621.3 +j    455.6     1684.0      -0.9627

ELEMENT = "Line.LN4586093_SW"
231      1       490.1 +j   -169.1      518.5      -0.9453
231      2       604.2 +j   -127.3      617.5      -0.9785
231      3       526.9 +j   -159.1      550.4      -0.9573
   TERMINAL TOTAL  1621.3 +j   -455.6     1684.0      -0.9627
232      1      -490.1 +j    169.1      518.5      -0.9453
232      2      -604.2 +j    127.3      617.5      -0.9785
232      3      -526.9 +j    159.1      550.4      -0.9573
   TERMINAL TOTAL -1621.2 +j    455.6     1684.0      -0.9627

ELEMENT = "Line.LN6138608-2"
232      1       490.1 +j   -169.1      518.5      -0.9453
232      2       604.2 +j   -127.3      617.5      -0.9785
232      3       526.9 +j   -159.1      550.4      -0.9573
   TERMINAL TOTAL  1621.2 +j   -455.6     1684.0      -0.9627
234      1      -490.1 +j    169.2      518.5      -0.9453
234      2      -604.2 +j    127.3      617.4      -0.9785
234      3      -526.9 +j    159.1      550.4      -0.9573
   TERMINAL TOTAL -1621.1 +j    455.6     1683.9      -0.9627

ELEMENT = "Line.LN5502532-1"
233      1       490.1 +j   -169.2      518.5      -0.9453
233      2       604.2 +j   -127.4      617.5      -0.9785
233      3       526.9 +j   -159.1      550.4      -0.9573
   TERMINAL TOTAL  1621.1 +j   -455.7     1683.9      -0.9627
235      1      -490.0 +j    169.2      518.4      -0.9452
235      2      -604.1 +j    127.4      617.4      -0.9785
235      3      -526.8 +j    159.2      550.3      -0.9573
   TERMINAL TOTAL -1621.0 +j    455.8     1683.8      -0.9627

ELEMENT = "Line.LN5472360-1"
235      1       490.0 +j   -169.2      518.4      -0.9452
235      2       604.1 +j   -127.4      617.4      -0.9785
235      3       526.8 +j   -159.2      550.3      -0.9573
   TERMINAL TOTAL  1621.0 +j   -455.8     1683.8      -0.9627
237      1      -489.6 +j    169.3      518.1      -0.9451
237      2      -603.5 +j    127.6      616.8      -0.9784
237      3      -526.4 +j    159.3      549.9      -0.9571
   TERMINAL TOTAL -1619.4 +j    456.2     1682.5      -0.9625

ELEMENT = "Line.LN5683823-1"
237      1       489.6 +j   -169.3      518.1      -0.9451
237      2       527.3 +j   -147.4      547.5      -0.9631
237      3       526.4 +j   -159.3      549.9      -0.9571
   TERMINAL TOTAL  1543.2 +j   -476.0     1615.0      -0.9556
238      1      -489.1 +j    169.5      517.6      -0.9449
238      2      -526.6 +j    147.6      546.9      -0.9629
238      3      -525.7 +j    159.5      549.4      -0.9569
   TERMINAL TOTAL -1541.4 +j    476.6     1613.4      -0.9554

ELEMENT = "Line.LN5835143-1"
238      1       483.7 +j   -170.9      513.0      -0.9429
238      2       526.6 +j   -147.6      546.9      -0.9629
238      3       519.5 +j   -161.2      544.0      -0.9551
   TERMINAL TOTAL  1529.8 +j   -479.7     1603.2      -0.9542
241      1      -482.5 +j    171.2      512.0      -0.9424
241      2      -525.2 +j    148.0      545.7      -0.9625
241      3      -518.2 +j    161.6      542.8      -0.9547
   TERMINAL TOTAL -1526.0 +j    480.8     1599.9      -0.9538

ELEMENT = "Line.LN5593234-1"
241      1       482.5 +j   -171.2      512.0      -0.9424
241      2       525.2 +j   -148.0      545.7      -0.9625
241      3       512.0 +j   -163.3      537.4      -0.9527
   TERMINAL TOTAL  1519.8 +j   -482.4     1594.5      -0.9531
243      1      -481.9 +j    171.4      511.5      -0.9422
243      2      -524.4 +j    148.2      545.0      -0.9623
243      3      -511.3 +j    163.5      536.8      -0.9525
   TERMINAL TOTAL -1517.7 +j    483.1     1592.7      -0.9529

ELEMENT = "Line.LN5863823-1"
243      1       481.9 +j   -171.4      511.5      -0.9422
243      2       524.4 +j   -148.2      545.0      -0.9623
243      3       152.2 +j   -259.1      300.5      -0.5064
   TERMINAL TOTAL  1158.5 +j   -578.7     1295.0      -0.8946
244      1      -481.6 +j    171.4      511.2      -0.9421
244      2      -524.1 +j    148.3      544.7      -0.9622
244      3      -152.1 +j    259.1      300.5      -0.5062
   TERMINAL TOTAL -1157.8 +j    578.9     1294.5      -0.8944

ELEMENT = "Line.LN5501088-1"
244      1       481.6 +j   -171.4      511.2      -0.9421
244      2       524.1 +j   -148.3      544.7      -0.9622
244      3       152.1 +j   -259.1      300.5      -0.5062
   TERMINAL TOTAL  1157.8 +j   -578.9     1294.5      -0.8944
246      1      -481.0 +j    171.5      510.6      -0.9419
246      2      -523.6 +j    148.6      544.2      -0.9620
246      3      -152.0 +j    259.2      300.5      -0.5059
   TERMINAL TOTAL -1156.5 +j    579.3     1293.5      -0.8941

ELEMENT = "Line.LN6108136-1"
246      1       481.0 +j   -171.5      510.6      -0.9419
246      2       523.6 +j   -148.6      544.2      -0.9620
246      3       145.8 +j   -260.8      298.8      -0.4880
   TERMINAL TOTAL  1150.3 +j   -581.0     1288.7      -0.8926
247      1      -480.8 +j    171.6      510.5      -0.9418
247      2      -523.3 +j    148.7      544.1      -0.9619
247      3      -145.8 +j    260.9      298.8      -0.4878
   TERMINAL TOTAL -1149.9 +j    581.1     1288.4      -0.8925

ELEMENT = "Line.LN6017299-1"
247      1       480.8 +j   -171.6      510.5      -0.9418
247      2       523.3 +j   -148.7      544.1      -0.9619
247      3       145.8 +j   -260.9      298.8      -0.4878
   TERMINAL TOTAL  1149.9 +j   -581.1     1288.4      -0.8925
249      1      -480.2 +j    171.6      510.0      -0.9417
249      2      -522.8 +j    149.0      543.6      -0.9617
249      3      -145.7 +j    260.9      298.8      -0.4875
   TERMINAL TOTAL -1148.8 +j    581.5     1287.6      -0.8922

ELEMENT = "Line.LN6413567-2"
249      1       480.2 +j   -171.6      510.0      -0.9417
249      2       522.8 +j   -149.0      543.6      -0.9617
249      3       141.6 +j   -262.0      297.8      -0.4754
   TERMINAL TOTAL  1144.6 +j   -582.6     1284.4      -0.8912
250      1      -479.9 +j    171.7      509.7      -0.9415
250      2      -522.5 +j    149.1      543.4      -0.9616
250      3      -141.5 +j    262.0      297.8      -0.4751
   TERMINAL TOTAL -1143.9 +j    582.9     1283.8      -0.8910

ELEMENT = "Line.LN6413567-3"
250      1       479.9 +j   -171.7      509.7      -0.9415
250      2       522.5 +j   -149.1      543.4      -0.9616
250      3       141.5 +j   -262.0      297.8      -0.4751
   TERMINAL TOTAL  1143.9 +j   -582.9     1283.8      -0.8910
251      1      -479.7 +j    171.7      509.5      -0.9415
251      2      -522.4 +j    149.2      543.3      -0.9616
251      3      -141.5 +j    262.1      297.8      -0.4751
   TERMINAL TOTAL -1143.6 +j    583.0     1283.6      -0.8909

ELEMENT = "Line.X8223_48332_SW"
251      1       479.7 +j   -171.7      509.5      -0.9415
251      2       522.4 +j   -149.2      543.3      -0.9616
251      3       141.5 +j   -262.1      297.8      -0.4751
   TERMINAL TOTAL  1143.6 +j   -583.0     1283.6      -0.8909
252      1      -479.7 +j    171.7      509.5      -0.9415
252      2      -522.4 +j    149.2      543.3      -0.9615
252      3      -141.5 +j    262.1      297.8      -0.4750
   TERMINAL TOTAL -1143.6 +j    583.0     1283.6      -0.8909

ELEMENT = "Line.LN5806919-1"
252      1       479.7 +j   -171.7      509.5      -0.9415
252      2       522.4 +j   -149.2      543.3      -0.9615
252      3       141.5 +j   -262.1      297.8      -0.4750
   TERMINAL TOTAL  1143.6 +j   -583.0     1283.6      -0.8909
255      1      -479.0 +j    171.8      508.8      -0.9412
255      2      -521.6 +j    149.6      542.6      -0.9613
255      3      -141.3 +j    262.1      297.8      -0.4746
   TERMINAL TOTAL -1141.9 +j    583.6     1282.4      -0.8905

ELEMENT = "Line.LN5804791-1"
255      1       344.7 +j   -207.7      402.4      -0.8565
255      2       521.6 +j   -149.6      542.6      -0.9613
255      3       141.3 +j   -262.1      297.8      -0.4746
   TERMINAL TOTAL  1007.6 +j   -619.5     1182.8      -0.8519
257      1      -344.3 +j    207.8      402.1      -0.8562
257      2      -521.0 +j    149.9      542.1      -0.9610
257      3      -141.2 +j    262.2      297.8      -0.4741
   TERMINAL TOTAL -1006.5 +j    619.8     1182.0      -0.8515

ELEMENT = "Line.LN5593222-1"
257      1       338.9 +j   -209.2      398.3      -0.8509
257      2       521.0 +j   -149.9      542.1      -0.9610
257      3       141.2 +j   -262.2      297.8      -0.4741
   TERMINAL TOTAL  1001.1 +j   -621.3     1178.2      -0.8497
260      1      -338.4 +j    209.2      397.8      -0.8506
...